psse/psse-converter/src/test/resources/RawxCaseWithSpecialCharacters.xiidm
<?xml version="1.0" encoding="UTF-8"?>
<iidm:network xmlns:iidm="http://www.powsybl.org/schema/iidm/1_18" xmlns:slt="http://www.powsybl.org/schema/iidm/ext/slack_terminal/1_5" id="RawxCaseWithSpecialCharacters" caseDate="2016-01-01T10:00:00.000+02:00" forecastDistance="0" sourceFormat="PSS/E" minimumValidationLevel="STEADY_STATE_HYPOTHESIS">
    <iidm:substation id="S101">
        <iidm:voltageLevel id="VL101" nominalV="1.0" topologyKind="BUS_BREAKER">
            <iidm:busBreakerTopology>
                <iidm:bus id="B101" name="Source!|@#$%&amp;/()?¿¡" v="1.0" angle="0.0"/>
            </iidm:busBreakerTopology>
            <iidm:generator id="B101-G1" energySource="OTHER" minP="-9999.0" maxP="9999.0" targetP="0.0" localTargetV="1.0" localTargetQ="0.0" bus="B101" connectableBus="B101">
                <iidm:minMaxReactiveLimits minQ="-9999.0" maxQ="9999.0"/>
                <iidm:voltageRegulation mode="VOLTAGE" regulating="true"/>
            </iidm:generator>
        </iidm:voltageLevel>
    </iidm:substation>
    <iidm:substation id="S102">
        <iidm:voltageLevel id="VL102" nominalV="1.0" topologyKind="BUS_BREAKER">
            <iidm:busBreakerTopology>
                <iidm:bus id="B102" name="Sink[]{}:º" v="1.0" angle="0.0"/>
            </iidm:busBreakerTopology>
            <iidm:load id="B102-L1" loadType="UNDEFINED" p0="500.0" q0="200.0" bus="B102" connectableBus="B102"/>
        </iidm:voltageLevel>
    </iidm:substation>
    <iidm:line id="L-101-102-1" r="0.0" x="1.0E-4" voltageLevelId1="VL101" bus1="B101" connectableBus1="B101" voltageLevelId2="VL102" bus2="B102" connectableBus2="B102"/>
    <iidm:extension id="VL101">
        <slt:slackTerminal id="B101-G1"/>
    </iidm:extension>
</iidm:network>
